
     RDKit          3D

 11 11  0  0  0  0  0  0  0  0999 V2000
   -0.1743    2.4390    0.1353 O   0  0  0  0  0  0  0  0  0  0  0  0
   -0.0894    1.1847    0.0658 C   0  0  0  0  0  0  0  0  0  0  0  0
    1.2193    0.5232    0.0214 C   0  0  0  0  0  0  0  0  0  0  0  0
    1.2627   -0.8109   -0.0523 C   0  0  0  0  0  0  0  0  0  0  0  0
    0.0531   -1.5906   -0.0879 N   0  0  0  0  0  0  0  0  0  0  0  0
   -1.1296   -1.0473   -0.0508 C   0  0  0  0  0  0  0  0  0  0  0  0
   -1.2681    0.3765    0.0284 N   0  0  0  0  0  0  0  0  0  0  0  0
    2.1334    1.1031    0.0479 H   0  0  0  0  0  0  0  0  0  0  0  0
    2.2194   -1.3153   -0.0858 H   0  0  0  0  0  0  0  0  0  0  0  0
   -2.0100   -1.6751   -0.0801 H   0  0  0  0  0  0  0  0  0  0  0  0
   -2.2165    0.8127    0.0581 H   0  0  0  0  0  0  0  0  0  0  0  0
  1  2  2  0
  2  3  1  0
  3  4  2  0
  4  5  1  0
  5  6  2  0
  6  7  1  0
  7  2  1  0
  3  8  1  0
  4  9  1  0
  6 10  1  0
  7 11  1  0
M  END
>  <tautomer smiles>  (1) 
O=c1ccnc[nH]1

>  <protonation smiles>  (1) 
O=c1ccnc[nH]1

>  <Score>  (1) 
0.0

>  <Label>  (1) 
low_energy

$$$$

     RDKit          3D

 11 11  0  0  0  0  0  0  0  0999 V2000
    2.4557   -0.8034   -0.9222 O   0  0  0  0  0  0  0  0  0  0  0  0
    1.2951   -0.5046   -0.5381 C   0  0  0  0  0  0  0  0  0  0  0  0
    1.0679    0.7025    0.2713 C   0  0  0  0  0  0  0  0  0  0  0  0
   -0.1750    0.9887    0.6611 C   0  0  0  0  0  0  0  0  0  0  0  0
   -1.2599    0.1260    0.2902 N   0  0  0  0  0  0  0  0  0  0  0  0
   -1.0198   -1.0481   -0.5002 C   0  0  0  0  0  0  0  0  0  0  0  0
    0.1854   -1.3415   -0.8883 N   0  0  0  0  0  0  0  0  0  0  0  0
    1.8930    1.3476    0.5462 H   0  0  0  0  0  0  0  0  0  0  0  0
   -0.3670    1.8716    1.2573 H   0  0  0  0  0  0  0  0  0  0  0  0
   -2.2313    0.3538    0.5975 H   0  0  0  0  0  0  0  0  0  0  0  0
   -1.8441   -1.6925   -0.7749 H   0  0  0  0  0  0  0  0  0  0  0  0
  1  2  2  0
  2  3  1  0
  3  4  2  0
  4  5  1  0
  5  6  1  0
  6  7  2  0
  7  2  1  0
  3  8  1  0
  4  9  1  0
  5 10  1  0
  6 11  1  0
M  END
>  <tautomer smiles>  (2) 
O=c1cc[nH]cn1

>  <protonation smiles>  (2) 
O=c1cc[nH]cn1

>  <Score>  (2) 
1.47

>  <Label>  (2) 
low_energy

$$$$

     RDKit          3D

 10 10  0  0  0  0  0  0  0  0999 V2000
   -1.6961   -2.0012   -0.0284 O   0  0  0  0  0  1  0  0  0  0  0  0
   -0.7185   -1.0151   -0.0167 C   0  0  0  0  0  0  0  0  0  0  0  0
   -1.0808    0.3317    0.0264 C   0  0  0  0  0  0  0  0  0  0  0  0
   -0.0687    1.2913    0.0369 C   0  0  0  0  0  0  0  0  0  0  0  0
    1.2332    0.9037    0.0054 N   0  0  0  0  0  0  0  0  0  0  0  0
    1.5673   -0.4131   -0.0364 C   0  0  0  0  0  0  0  0  0  0  0  0
    0.5948   -1.3625   -0.0472 N   0  0  0  0  0  0  0  0  0  0  0  0
   -2.1219    0.6273    0.0512 H   0  0  0  0  0  0  0  0  0  0  0  0
   -0.3172    2.3436    0.0699 H   0  0  0  0  0  0  0  0  0  0  0  0
    2.6080   -0.7057   -0.0611 H   0  0  0  0  0  0  0  0  0  0  0  0
  1  2  1  0
  2  3  2  0
  3  4  1  0
  4  5  2  0
  5  6  1  0
  6  7  2  0
  7  2  1  0
  3  8  1  0
  4  9  1  0
  6 10  1  0
M  CHG  1   1  -1
M  END
>  <tautomer smiles>  (3) 
Oc1ccncn1

>  <protonation smiles>  (3) 
[O-]c1ccncn1

>  <Score>  (3) 
2.02

>  <Label>  (3) 
low_energy

$$$$

     RDKit          3D

 11 11  0  0  0  0  0  0  0  0999 V2000
   -0.9566   -2.2938    0.3102 O   0  0  0  0  0  0  0  0  0  0  0  0
   -0.3465   -1.2098    0.1169 C   0  0  0  0  0  0  0  0  0  0  0  0
   -1.0655    0.0942    0.3141 C   0  0  0  0  0  0  0  0  0  0  0  0
   -0.1757    1.2758    0.0368 C   0  0  0  0  0  0  0  0  0  0  0  0
    1.0641    1.1390   -0.3283 N   0  0  0  0  0  0  0  0  0  0  0  0
    1.6867   -0.1402   -0.4974 C   0  0  0  0  0  0  0  0  0  0  0  0
    1.0242   -1.2348   -0.2884 N   0  0  0  0  0  0  0  0  0  0  0  0
   -1.4283    0.1556    1.3618 H   0  0  0  0  0  0  0  0  0  0  0  0
   -1.9402    0.1351   -0.3686 H   0  0  0  0  0  0  0  0  0  0  0  0
   -0.5845    2.2715    0.1460 H   0  0  0  0  0  0  0  0  0  0  0  0
    2.7225   -0.1927   -0.8032 H   0  0  0  0  0  0  0  0  0  0  0  0
  1  2  2  0
  2  3  1  0
  3  4  1  0
  4  5  2  0
  5  6  1  0
  6  7  2  0
  7  2  1  0
  3  8  1  0
  3  9  1  0
  4 10  1  0
  6 11  1  0
M  END
>  <tautomer smiles>  (4) 
O=C1CC=NC=N1

>  <protonation smiles>  (4) 
O=C1CC=NC=N1

>  <Score>  (4) 
9.76

>  <Label>  (4) 
high_energy

$$$$
