
     RDKit          3D

 11 11  0  0  0  0  0  0  0  0999 V2000
   -0.1707    2.4405    0.1109 O   0  0  0  0  0  0  0  0  0  0  0  0
   -0.0877    1.1854    0.0540 C   0  0  0  0  0  0  0  0  0  0  0  0
    1.2194    0.5231   -0.0178 C   0  0  0  0  0  0  0  0  0  0  0  0
    1.2608   -0.8118   -0.0767 C   0  0  0  0  0  0  0  0  0  0  0  0
    0.0507   -1.5916   -0.0703 N   0  0  0  0  0  0  0  0  0  0  0  0
   -1.1305   -1.0475   -0.0078 C   0  0  0  0  0  0  0  0  0  0  0  0
   -1.2668    0.3772    0.0582 N   0  0  0  0  0  0  0  0  0  0  0  0
    2.1339    1.1030   -0.0230 H   0  0  0  0  0  0  0  0  0  0  0  0
    2.2164   -1.3168   -0.1301 H   0  0  0  0  0  0  0  0  0  0  0  0
   -2.0114   -1.6753   -0.0057 H   0  0  0  0  0  0  0  0  0  0  0  0
   -2.2142    0.8140    0.1084 H   0  0  0  0  0  0  0  0  0  0  0  0
  1  2  2  0
  2  3  1  0
  3  4  2  0
  4  5  1  0
  5  6  2  0
  6  7  1  0
  7  2  1  0
  3  8  1  0
  4  9  1  0
  6 10  1  0
  7 11  1  0
M  END
>  <tautomer smiles>  (1) 
O=c1ccnc[nH]1

>  <protonation smiles>  (1) 
O=c1ccnc[nH]1

>  <Score>  (1) 
0.0

>  <Label>  (1) 
low_energy

$$$$

     RDKit          3D

 11 11  0  0  0  0  0  0  0  0999 V2000
    2.3371   -1.4306   -0.1321 O   0  0  0  0  0  0  0  0  0  0  0  0
    1.2222   -0.8500   -0.0711 C   0  0  0  0  0  0  0  0  0  0  0  0
    1.1502    0.6189   -0.0384 C   0  0  0  0  0  0  0  0  0  0  0  0
   -0.0480    1.2009    0.0262 C   0  0  0  0  0  0  0  0  0  0  0  0
   -1.2355    0.3963    0.0626 N   0  0  0  0  0  0  0  0  0  0  0  0
   -1.1464   -1.0361    0.0299 C   0  0  0  0  0  0  0  0  0  0  0  0
    0.0134   -1.6192   -0.0331 N   0  0  0  0  0  0  0  0  0  0  0  0
    2.0520    1.2177   -0.0663 H   0  0  0  0  0  0  0  0  0  0  0  0
   -0.1263    2.2803    0.0514 H   0  0  0  0  0  0  0  0  0  0  0  0
   -2.1714    0.8561    0.1132 H   0  0  0  0  0  0  0  0  0  0  0  0
   -2.0473   -1.6343    0.0577 H   0  0  0  0  0  0  0  0  0  0  0  0
  1  2  2  0
  2  3  1  0
  3  4  2  0
  4  5  1  0
  5  6  1  0
  6  7  2  0
  7  2  1  0
  3  8  1  0
  4  9  1  0
  5 10  1  0
  6 11  1  0
M  END
>  <tautomer smiles>  (2) 
O=c1cc[nH]cn1

>  <protonation smiles>  (2) 
O=c1cc[nH]cn1

>  <Score>  (2) 
1.44

>  <Label>  (2) 
low_energy

$$$$

     RDKit          3D

 10 10  0  0  0  0  0  0  0  0999 V2000
   -1.5425   -2.1221   -0.0088 O   0  0  0  0  0  1  0  0  0  0  0  0
   -0.6409   -1.0659   -0.0050 C   0  0  0  0  0  0  0  0  0  0  0  0
   -1.1027    0.2508    0.0063 C   0  0  0  0  0  0  0  0  0  0  0  0
   -0.1648    1.2830    0.0099 C   0  0  0  0  0  0  0  0  0  0  0  0
    1.1626    0.9929    0.0023 N   0  0  0  0  0  0  0  0  0  0  0  0
    1.5940   -0.2959   -0.0087 C   0  0  0  0  0  0  0  0  0  0  0  0
    0.6948   -1.3151   -0.0123 N   0  0  0  0  0  0  0  0  0  0  0  0
   -2.1631    0.4685    0.0123 H   0  0  0  0  0  0  0  0  0  0  0  0
   -0.4911    2.3144    0.0186 H   0  0  0  0  0  0  0  0  0  0  0  0
    2.6537   -0.5106   -0.0146 H   0  0  0  0  0  0  0  0  0  0  0  0
  1  2  1  0
  2  3  2  0
  3  4  1  0
  4  5  2  0
  5  6  1  0
  6  7  2  0
  7  2  1  0
  3  8  1  0
  4  9  1  0
  6 10  1  0
M  CHG  1   1  -1
M  END
>  <tautomer smiles>  (3) 
Oc1ccncn1

>  <protonation smiles>  (3) 
[O-]c1ccncn1

>  <Score>  (3) 
2.02

>  <Label>  (3) 
low_energy

$$$$

     RDKit          3D

 11 11  0  0  0  0  0  0  0  0999 V2000
   -1.2840   -2.1144   -0.3916 O   0  0  0  0  0  0  0  0  0  0  0  0
   -0.5320   -1.1387   -0.1324 C   0  0  0  0  0  0  0  0  0  0  0  0
   -0.9628    0.2517   -0.5026 C   0  0  0  0  0  0  0  0  0  0  0  0
    0.0636    1.2817   -0.1144 C   0  0  0  0  0  0  0  0  0  0  0  0
    1.1790    0.9620    0.4710 N   0  0  0  0  0  0  0  0  0  0  0  0
    1.5256   -0.3898    0.7953 C   0  0  0  0  0  0  0  0  0  0  0  0
    0.7235   -1.3680    0.5117 N   0  0  0  0  0  0  0  0  0  0  0  0
   -1.9189    0.4861    0.0110 H   0  0  0  0  0  0  0  0  0  0  0  0
   -1.1260    0.3029   -1.5997 H   0  0  0  0  0  0  0  0  0  0  0  0
   -0.1365    2.3226   -0.3313 H   0  0  0  0  0  0  0  0  0  0  0  0
    2.4684   -0.5961    1.2829 H   0  0  0  0  0  0  0  0  0  0  0  0
  1  2  2  0
  2  3  1  0
  3  4  1  0
  4  5  2  0
  5  6  1  0
  6  7  2  0
  7  2  1  0
  3  8  1  0
  3  9  1  0
  4 10  1  0
  6 11  1  0
M  END
>  <tautomer smiles>  (4) 
O=C1CC=NC=N1

>  <protonation smiles>  (4) 
O=C1CC=NC=N1

>  <Score>  (4) 
9.78

>  <Label>  (4) 
high_energy

$$$$
