
     RDKit          3D

 11 11  0  0  0  0  0  0  0  0999 V2000
   -2.2036   -1.6341   -0.0032 O   0  0  0  0  0  0  0  0  0  0  0  0
   -1.1434   -0.9560   -0.0030 C   0  0  0  0  0  0  0  0  0  0  0  0
   -1.2014    0.5137    0.0154 C   0  0  0  0  0  0  0  0  0  0  0  0
   -0.0582    1.2006    0.0151 C   0  0  0  0  0  0  0  0  0  0  0  0
    1.1967    0.5053   -0.0029 N   0  0  0  0  0  0  0  0  0  0  0  0
    1.2345   -0.9297   -0.0208 C   0  0  0  0  0  0  0  0  0  0  0  0
    0.1296   -1.6143   -0.0208 N   0  0  0  0  0  0  0  0  0  0  0  0
   -2.1533    1.0297    0.0290 H   0  0  0  0  0  0  0  0  0  0  0  0
   -0.0755    2.2830    0.0285 H   0  0  0  0  0  0  0  0  0  0  0  0
    2.0892    1.0470   -0.0031 H   0  0  0  0  0  0  0  0  0  0  0  0
    2.1854   -1.4452   -0.0343 H   0  0  0  0  0  0  0  0  0  0  0  0
  1  2  2  0
  2  3  1  0
  3  4  2  0
  4  5  1  0
  5  6  1  0
  6  7  2  0
  7  2  1  0
  3  8  1  0
  4  9  1  0
  5 10  1  0
  6 11  1  0
M  END
>  <tautomer smiles>  (1) 
O=c1cc[nH]cn1

>  <protonation smiles>  (1) 
O=c1cc[nH]cn1

>  <Score>  (1) 
0.0

>  <Label>  (1) 
low_energy

$$$$

     RDKit          3D

 11 11  0  0  0  0  0  0  0  0999 V2000
   -0.2137    2.4389   -0.0603 O   0  0  0  0  0  0  0  0  0  0  0  0
   -0.0991    1.1854   -0.0292 C   0  0  0  0  0  0  0  0  0  0  0  0
   -1.2865    0.3237   -0.0321 C   0  0  0  0  0  0  0  0  0  0  0  0
   -1.1183   -1.0020    0.0017 C   0  0  0  0  0  0  0  0  0  0  0  0
    0.1993   -1.5809    0.0402 N   0  0  0  0  0  0  0  0  0  0  0  0
    1.2808   -0.8561    0.0442 C   0  0  0  0  0  0  0  0  0  0  0  0
    1.1923    0.5735    0.0096 N   0  0  0  0  0  0  0  0  0  0  0  0
   -2.2807    0.7519   -0.0610 H   0  0  0  0  0  0  0  0  0  0  0  0
   -1.9830   -1.6525    0.0001 H   0  0  0  0  0  0  0  0  0  0  0  0
    2.2494   -1.3370    0.0739 H   0  0  0  0  0  0  0  0  0  0  0  0
    2.0596    1.1552    0.0128 H   0  0  0  0  0  0  0  0  0  0  0  0
  1  2  2  0
  2  3  1  0
  3  4  2  0
  4  5  1  0
  5  6  2  0
  6  7  1  0
  7  2  1  0
  3  8  1  0
  4  9  1  0
  6 10  1  0
  7 11  1  0
M  END
>  <tautomer smiles>  (2) 
O=c1ccnc[nH]1

>  <protonation smiles>  (2) 
O=c1ccnc[nH]1

>  <Score>  (2) 
0.48

>  <Label>  (2) 
low_energy

$$$$

     RDKit          3D

 10 10  0  0  0  0  0  0  0  0999 V2000
    2.2914   -1.2738    0.0970 O   0  0  0  0  0  1  0  0  0  0  0  0
    1.0302   -0.6960    0.0350 C   0  0  0  0  0  0  0  0  0  0  0  0
    0.8883    0.6895    0.1202 C   0  0  0  0  0  0  0  0  0  0  0  0
   -0.3956    1.2305    0.0538 C   0  0  0  0  0  0  0  0  0  0  0  0
   -1.4698    0.4111   -0.0906 N   0  0  0  0  0  0  0  0  0  0  0  0
   -1.3122   -0.9364   -0.1719 C   0  0  0  0  0  0  0  0  0  0  0  0
   -0.0689   -1.4818   -0.1090 N   0  0  0  0  0  0  0  0  0  0  0  0
    1.7524    1.3313    0.2351 H   0  0  0  0  0  0  0  0  0  0  0  0
   -0.5387    2.3009    0.1169 H   0  0  0  0  0  0  0  0  0  0  0  0
   -2.1770   -1.5753   -0.2866 H   0  0  0  0  0  0  0  0  0  0  0  0
  1  2  1  0
  2  3  2  0
  3  4  1  0
  4  5  2  0
  5  6  1  0
  6  7  2  0
  7  2  1  0
  3  8  1  0
  4  9  1  0
  6 10  1  0
M  CHG  1   1  -1
M  END
>  <tautomer smiles>  (3) 
Oc1ccncn1

>  <protonation smiles>  (3) 
[O-]c1ccncn1

>  <Score>  (3) 
3.28

>  <Label>  (3) 
high_energy

$$$$

     RDKit          3D

 11 11  0  0  0  0  0  0  0  0999 V2000
   -0.9093   -2.3299    0.1313 O   0  0  0  0  0  0  0  0  0  0  0  0
   -0.3193   -1.2182    0.1060 C   0  0  0  0  0  0  0  0  0  0  0  0
   -1.0834    0.0214   -0.2623 C   0  0  0  0  0  0  0  0  0  0  0  0
   -0.2121    1.2484   -0.2376 C   0  0  0  0  0  0  0  0  0  0  0  0
    1.0490    1.1965    0.0718 N   0  0  0  0  0  0  0  0  0  0  0  0
    1.7147   -0.0252    0.4138 C   0  0  0  0  0  0  0  0  0  0  0  0
    1.0718   -1.1509    0.4285 N   0  0  0  0  0  0  0  0  0  0  0  0
   -1.9200    0.1604    0.4544 H   0  0  0  0  0  0  0  0  0  0  0  0
   -1.5047   -0.0995   -1.2824 H   0  0  0  0  0  0  0  0  0  0  0  0
   -0.6534    2.2044   -0.4861 H   0  0  0  0  0  0  0  0  0  0  0  0
    2.7667   -0.0074    0.6627 H   0  0  0  0  0  0  0  0  0  0  0  0
  1  2  2  0
  2  3  1  0
  3  4  1  0
  4  5  2  0
  5  6  1  0
  6  7  2  0
  7  2  1  0
  3  8  1  0
  3  9  1  0
  4 10  1  0
  6 11  1  0
M  END
>  <tautomer smiles>  (4) 
O=C1CC=NC=N1

>  <protonation smiles>  (4) 
O=C1CC=NC=N1

>  <Score>  (4) 
9.7

>  <Label>  (4) 
high_energy

$$$$
