
     RDKit          3D

 15 15  0  0  0  0  0  0  0  0999 V2000
    2.2438   -0.0145    0.0088 C   0  0  0  0  0  0  0  0  0  0  0  0
    0.7404   -0.0370    0.0049 C   0  0  0  0  0  0  0  0  0  0  0  0
    0.0724   -1.2016    0.0766 C   0  0  0  0  0  0  0  0  0  0  0  0
   -1.3619   -1.2404    0.0741 N   0  0  0  0  0  0  0  0  0  0  0  0
   -2.1241   -0.0332   -0.0053 C   0  0  0  0  0  0  0  0  0  0  0  0
   -3.3828   -0.0742   -0.0071 O   0  0  0  0  0  0  0  0  0  0  0  0
   -1.4433    1.2187   -0.0825 N   0  0  0  0  0  0  0  0  0  0  0  0
   -0.0131    1.2359   -0.0786 C   0  0  0  0  0  0  0  0  0  0  0  0
    0.5979    2.3360   -0.1463 O   0  0  0  0  0  0  0  0  0  0  0  0
    2.6100    0.4601   -0.9257 H   0  0  0  0  0  0  0  0  0  0  0  0
    2.6037    0.5745    0.8784 H   0  0  0  0  0  0  0  0  0  0  0  0
    2.6764   -1.0359    0.0750 H   0  0  0  0  0  0  0  0  0  0  0  0
    0.6140   -2.1378    0.1380 H   0  0  0  0  0  0  0  0  0  0  0  0
   -1.8501   -2.1620    0.1309 H   0  0  0  0  0  0  0  0  0  0  0  0
   -1.9832    2.1114   -0.1411 H   0  0  0  0  0  0  0  0  0  0  0  0
  1  2  1  0
  2  3  2  0
  3  4  1  0
  4  5  1  0
  5  6  2  0
  5  7  1  0
  7  8  1  0
  8  9  2  0
  8  2  1  0
  1 10  1  0
  1 11  1  0
  1 12  1  0
  3 13  1  0
  4 14  1  0
  7 15  1  0
M  END
>  <tautomer smiles>  (1) 
Cc1c[nH]c(=O)[nH]c1=O

>  <protonation smiles>  (1) 
Cc1c[nH]c(=O)[nH]c1=O

>  <Score>  (1) 
0.0

>  <Label>  (1) 
low_energy

$$$$
